Version 4
SHEET 1 880 680
WIRE 112 0 -256 0
WIRE 432 0 208 0
WIRE 432 48 432 0
WIRE -256 80 -256 0
WIRE 208 112 208 0
WIRE 112 144 112 0
WIRE 160 144 112 144
WIRE 336 160 288 160
WIRE 160 176 -176 176
WIRE -176 224 -176 176
WIRE 208 272 208 208
WIRE 208 272 144 272
WIRE 432 272 432 128
WIRE 432 272 208 272
WIRE 208 304 208 272
WIRE -256 320 -256 160
WIRE -176 320 -176 304
WIRE -176 320 -256 320
WIRE 144 320 144 272
WIRE 144 320 -176 320
FLAG 208 304 0
SYMBOL NOR 192 160 R0
SYMATTR InstName X1
SYMBOL voltage 432 32 R0
WINDOW 123 0 0 Left 0
WINDOW 39 0 0 Left 0
SYMATTR InstName V1
SYMATTR Value 1.2
SYMBOL voltage -256 64 R0
WINDOW 123 0 0 Left 0
WINDOW 39 0 0 Left 0
SYMATTR InstName V2
SYMATTR Value PULSE(0 1.2 200p 10p 10p 2n 3n)
SYMBOL voltage -176 208 R0
WINDOW 123 0 0 Left 0
WINDOW 39 0 0 Left 0
SYMATTR InstName V3
SYMATTR Value PULSE(0 1.2 200p 10p 10p 3.5n 5n)
TEXT -290 330 Left 2 !.tran 0 50n 0
