Version 4
SHEET 1 880 680
WIRE -608 -176 -608 -192
WIRE 192 -48 0 -48
WIRE -464 -16 -464 -32
WIRE 0 -16 0 -48
WIRE 0 80 0 64
WIRE 192 80 192 -48
WIRE 128 128 64 128
WIRE 416 128 304 128
WIRE -320 144 -320 128
WIRE 304 144 304 128
WIRE 304 144 256 144
WIRE 320 144 304 144
WIRE 128 160 64 160
WIRE 320 176 256 176
WIRE 416 176 416 128
WIRE 128 192 64 192
WIRE -608 256 -608 -96
WIRE -464 256 -464 64
WIRE -464 256 -608 256
WIRE -320 256 -320 224
WIRE -320 256 -464 256
WIRE 192 256 192 240
WIRE 192 256 -320 256
WIRE 416 256 416 240
WIRE 192 272 192 256
FLAG 192 272 0
FLAG 0 80 0
FLAG -608 -192 D
FLAG 64 128 D
FLAG -464 -32 CK
FLAG 64 160 CK
FLAG -320 128 RN
FLAG 64 192 RN
FLAG 320 144 Q
FLAG 320 176 QN
FLAG 416 256 0
SYMBOL FFD_RS 192 160 R0
SYMATTR InstName X1
SYMBOL voltage -608 -192 R0
WINDOW 123 0 0 Left 0
WINDOW 39 0 0 Left 0
SYMATTR InstName V1
SYMATTR Value PULSE(0 1.2 200p 10p 10p 9n 18n)
SYMBOL voltage -464 -32 R0
WINDOW 123 0 0 Left 0
WINDOW 39 0 0 Left 0
SYMATTR InstName V2
SYMATTR Value PULSE(0 1.2 200p 10p 10p 2n 4n)
SYMBOL voltage -320 128 R0
WINDOW 123 0 0 Left 0
WINDOW 39 0 0 Left 0
SYMATTR InstName V3
SYMATTR Value PULSE(0 1.2 200p 10p 10p 31n 43n)
SYMBOL voltage 0 -32 R0
SYMATTR InstName VDD
SYMATTR Value 1.2
SYMBOL cap 400 176 R0
SYMATTR InstName C1
SYMATTR Value 280f
TEXT 24 -144 Left 2 !.tran 0 150n 0
