Version 4
SHEET 1 880 680
WIRE -288 -240 -288 -256
WIRE 512 -112 320 -112
WIRE -144 -80 -144 -96
WIRE 320 -80 320 -112
WIRE 320 16 320 0
WIRE 512 16 512 -112
WIRE 448 64 384 64
WIRE 0 80 0 64
WIRE 640 80 576 80
WIRE 448 96 384 96
WIRE 640 112 576 112
WIRE 448 128 384 128
WIRE -288 192 -288 -160
WIRE -144 192 -144 0
WIRE -144 192 -288 192
WIRE 0 192 0 160
WIRE 0 192 -144 192
WIRE 512 192 512 176
WIRE 512 192 0 192
WIRE 512 208 512 192
FLAG 512 208 0
FLAG 320 16 0
FLAG -288 -256 D
FLAG 384 64 D
FLAG -144 -96 CK
FLAG 384 96 CK
FLAG 0 64 RN
FLAG 384 128 RN
FLAG 640 80 Q
FLAG 640 112 QN
SYMBOL voltage -288 -256 R0
WINDOW 123 0 0 Left 0
WINDOW 39 0 0 Left 0
SYMATTR InstName V1
SYMATTR Value PULSE(0 1.2 200p 10p 10p 3n 6n)
SYMBOL voltage -144 -96 R0
WINDOW 123 0 0 Left 0
WINDOW 39 0 0 Left 0
SYMATTR InstName V2
SYMATTR Value PULSE(0 1.2 200p 10p 10p 2n 4n)
SYMBOL voltage 0 64 R0
WINDOW 123 0 0 Left 0
WINDOW 39 0 0 Left 0
SYMATTR InstName V3
SYMATTR Value PULSE(0 1.2 200p 10p 10p 30n 40n)
SYMBOL voltage 320 -96 R0
SYMATTR InstName VDD1
SYMATTR Value 1.2
SYMBOL FFD_RS_fix_02 512 96 R0
SYMATTR InstName X1
TEXT -208 328 Left 2 !.lib 130nm_bulk.lib
TEXT -320 352 Left 2 !.tran 0 100n 0
