Version 4
SHEET 1 880 680
WIRE 128 -64 -32 -64
WIRE -96 -32 -144 -32
WIRE 16 -32 -96 -32
WIRE 64 -32 16 -32
WIRE 256 -32 64 -32
WIRE 384 -32 256 -32
WIRE 480 -32 480 -64
WIRE 480 -32 384 -32
WIRE 688 -32 480 -32
WIRE -96 0 -96 -32
WIRE 16 0 16 -32
WIRE 144 0 128 0
WIRE -128 16 -224 16
WIRE -32 16 -32 -64
WIRE -32 16 -64 16
WIRE -16 16 -32 16
WIRE 128 16 128 0
WIRE 128 16 48 16
WIRE 144 32 32 32
WIRE 480 32 144 32
WIRE -96 64 -96 32
WIRE 16 64 16 32
WIRE 16 64 -96 64
WIRE 32 64 32 32
WIRE 32 64 16 64
WIRE 64 112 64 -32
WIRE 64 112 48 112
WIRE 144 112 144 32
WIRE 144 112 112 112
WIRE 240 112 144 112
WIRE 480 112 480 32
WIRE 480 112 464 112
WIRE -144 128 -144 -32
WIRE -144 128 -304 128
WIRE 256 128 256 -32
WIRE 256 128 224 128
WIRE 448 128 448 112
WIRE 464 128 464 112
WIRE 64 144 -32 144
WIRE 192 144 128 144
WIRE 416 160 336 160
WIRE 512 160 480 160
WIRE -144 192 -176 192
WIRE -96 192 -96 64
WIRE -96 192 -144 192
WIRE 96 192 96 176
WIRE 112 192 112 176
WIRE 224 192 224 128
WIRE 224 192 112 192
WIRE 48 208 48 112
WIRE 64 208 48 208
WIRE 448 208 448 192
WIRE 464 208 464 192
WIRE 688 208 688 -32
WIRE 688 208 464 208
WIRE -144 224 -144 192
WIRE -96 224 -128 224
WIRE 64 224 64 208
WIRE 384 224 384 -32
WIRE 416 224 384 224
WIRE 240 240 240 112
WIRE 256 240 240 240
WIRE 272 240 272 224
WIRE 416 240 416 224
WIRE 640 240 576 240
WIRE 688 240 688 208
WIRE 688 240 640 240
WIRE -160 256 -240 256
WIRE -32 256 -32 144
WIRE -32 256 -96 256
WIRE 16 256 -32 256
WIRE 192 272 192 144
WIRE 192 272 144 272
WIRE 240 272 192 272
WIRE 336 272 336 160
WIRE 336 272 304 272
WIRE 368 272 336 272
WIRE 576 272 576 240
WIRE 688 272 688 240
WIRE -112 288 -128 288
WIRE 16 288 -32 288
WIRE 512 288 512 160
WIRE 512 288 496 288
WIRE 544 288 512 288
WIRE 656 288 608 288
WIRE 784 288 720 288
WIRE 288 304 272 304
WIRE 368 304 352 304
WIRE -304 336 -304 128
WIRE -144 336 -144 288
WIRE -144 336 -304 336
WIRE -128 336 -144 336
WIRE 224 336 224 192
WIRE 256 336 256 304
WIRE 256 336 224 336
WIRE -128 368 -128 336
WIRE 640 368 640 240
WIRE -160 384 -240 384
WIRE -32 384 -32 288
WIRE -32 384 -96 384
WIRE 352 384 352 304
WIRE 352 384 -32 384
WIRE 512 384 512 288
WIRE 608 384 512 384
WIRE 784 384 672 384
WIRE -176 432 -176 192
WIRE -128 432 -128 400
WIRE -128 432 -176 432
WIRE 64 432 64 320
WIRE 64 432 -128 432
WIRE 288 432 64 432
WIRE 416 432 416 336
WIRE 416 432 288 432
WIRE 576 432 576 304
WIRE 576 432 416 432
WIRE 640 432 640 400
WIRE 640 432 576 432
WIRE 688 432 688 304
WIRE 688 432 640 432
WIRE 288 480 288 432
FLAG -224 16 CK
IOPIN -224 16 In
FLAG 128 -64 cn
IOPIN 128 -64 BiDir
FLAG -240 384 RN
IOPIN -240 384 In
FLAG -240 256 D
IOPIN -240 256 In
FLAG 784 288 Q
IOPIN 784 288 Out
FLAG 784 384 QN
IOPIN 784 384 Out
FLAG 96 112 cn
IOPIN 96 112 BiDir
FLAG 272 224 cn
IOPIN 272 224 BiDir
FLAG 96 192 c
IOPIN 96 192 BiDir
FLAG 288 304 c
IOPIN 288 304 BiDir
FLAG 480 -64 VDD
IOPIN 480 -64 In
FLAG 288 480 GND
IOPIN 288 480 In
FLAG 144 0 c
IOPIN 144 0 BiDir
FLAG -96 224 cn
IOPIN -96 224 BiDir
FLAG -112 288 c
IOPIN -112 288 BiDir
FLAG 448 112 cn
IOPIN 448 112 BiDir
FLAG 448 208 c
IOPIN 448 208 BiDir
SYMBOL Inverter -64 32 R0
SYMATTR InstName X1
SYMBOL Inverter 48 32 R0
SYMATTR InstName X2
SYMBOL Tristate_Inv 32 112 R180
SYMATTR InstName X3
SYMBOL Tristate_Inv 384 128 R180
SYMATTR InstName X4
SYMBOL NOR 48 272 R0
SYMATTR InstName X5
SYMBOL NOR 400 288 R0
SYMATTR InstName X6
SYMBOL Inverter 608 304 R0
SYMATTR InstName X7
SYMBOL Inverter 720 304 R0
SYMATTR InstName X8
SYMBOL Inverter 672 400 R0
SYMATTR InstName X9
SYMBOL Inverter -96 400 R0
SYMATTR InstName X10
SYMBOL Tristate_Inv -64 224 M180
SYMATTR InstName X11
SYMBOL Tristate_Inv 336 240 M180
SYMATTR InstName X12
TEXT 584 -120 Left 2 !.lib 130nm_bulk.lib
