Version 4
SHEET 1 880 680
WIRE -224 -192 -224 -208
WIRE 576 -64 384 -64
WIRE -80 -32 -80 -48
WIRE 384 -32 384 -64
WIRE 384 64 384 48
WIRE 576 64 576 -64
WIRE 512 112 448 112
WIRE 64 128 64 112
WIRE 704 128 640 128
WIRE 512 144 448 144
WIRE 704 160 640 160
WIRE 512 176 448 176
WIRE -224 240 -224 -112
WIRE -80 240 -80 48
WIRE -80 240 -224 240
WIRE 64 240 64 208
WIRE 64 240 -80 240
WIRE 576 240 576 224
WIRE 576 240 64 240
WIRE 576 256 576 240
FLAG 576 256 0
FLAG 384 64 0
FLAG -224 -208 D
FLAG 448 112 D
FLAG -80 -48 CK
FLAG 448 144 CK
FLAG 64 112 RN
FLAG 448 176 RN
FLAG 704 128 Q
FLAG 704 160 QN
SYMBOL voltage -224 -208 R0
WINDOW 123 0 0 Left 0
WINDOW 39 0 0 Left 0
SYMATTR InstName V1
SYMATTR Value PULSE(0 1.2 200p 10p 10p 3n 6n)
SYMBOL voltage -80 -48 R0
WINDOW 123 0 0 Left 0
WINDOW 39 0 0 Left 0
SYMATTR InstName V2
SYMATTR Value PULSE(0 1.2 200p 10p 10p 2n 4n)
SYMBOL voltage 64 112 R0
WINDOW 123 0 0 Left 0
WINDOW 39 0 0 Left 0
SYMATTR InstName V3
SYMATTR Value PULSE(0 1.2 200p 10p 10p 30n 40n)
SYMBOL voltage 384 -48 R0
SYMATTR InstName VDD1
SYMATTR Value 1.2
SYMBOL FFD_RS_fix 576 144 R0
SYMATTR InstName X1
TEXT -144 376 Left 2 !.lib 130nm_bulk.lib
TEXT -256 400 Left 2 !.tran 0 100n 0
